[General]
network = SimpleNetwork
sim-time-limit = 1h

**.arp.typename = "GlobalArp"

*.host[*].numApps = 3
*.host[*].app[0].typename = "Daemon"

*.host[*].app[1].typename = "Publisher"
*.host[*].app[1].createEventInterval = exponential(10s)
*.host[*].app[1].contentLength = 0B

*.host[*].app[2].typename = "Browser"
*.host[*].app[2].discoverEventChainInterval = 0s
*.host[*].app[2].discoverEventBoundsInterval = 0s
*.host[*].app[2].discoverEventOrderInterval = 0s
