[General]
network = SimpleNetwork
sim-time-limit = 1h

**.arp.typename = "GlobalArp"

*.host[*].numApps = 3
*.host[*].app[0].typename = "Daemon"
*.host[*].app[*].daemonModule = "^.app[0]"
*.host[*].app[*].configuratorModule = "lotiConfigurator"
*.host[*].app[0].createClockEventInterval = uniform(0.9s, 1.1s)
*.host[*].app[0].discoveryExpiryTime = 1s

*.host[*].app[1].typename = "Publisher"
*.host[*].app[1].createEventInterval = exponential(10s)
*.host[*].app[1].contentLength = intuniform(500B, 1000B)

*.host[*].app[2].typename = "Browser"
*.host[*].app[2].discoverEventChainInterval = 0s
*.host[*].app[2].discoverEventBoundsInterval = 0s
*.host[*].app[2].discoverEventOrderInterval = 0s

[Config NoDiscovery]
description = "All discoveries turned off"

[Config EventChainDiscovery]
description = "Event chain discovery is enabled"
*.host[*].app[2].discoverEventChainInterval = exponential(10s)

[Config EventBoundsDiscovery]
description = "Event bounds discovery is enabled"
*.host[*].app[2].discoverEventBoundsInterval = exponential(10s)

[Config EventOrderDiscovery]
description = "Event order discovery is enabled"
*.host[*].app[2].discoverEventOrderInterval = exponential(10s)
